STAAD SPACE
START JOB INFORMATION
ENGINEER DATE 22-Jun-22
END JOB INFORMATION
INPUT WIDTH 79
UNIT METER KN
JOINT COORDINATES
1 0 0 0; 2 4 0 0; 3 0 0 4; 4 4 0 4; 5 0 5 0; 6 4 5 0; 7 0 5 4; 8 4 5 4;
9 0 10 0; 10 4 10 0; 11 0 10 4; 12 4 10 4; 13 0 15 0; 14 4 15 0; 15 0 15 4;
16 4 15 4; 17 0 20 0; 18 4 20 0; 19 0 20 4; 20 4 20 4; 21 0 25 0; 22 4 25 0;
23 0 25 4; 24 4 25 4; 25 0 30 0; 26 4 30 0; 27 0 30 4; 28 4 30 4; 29 0 35 0;
30 4 35 0; 31 0 35 4; 32 4 35 4; 33 0 40 0; 34 4 40 0; 35 0 40 4; 36 4 40 4;
37 0 45 0; 38 4 45 0; 39 0 45 4; 40 4 45 4; 41 0 50 0; 42 4 50 0; 43 0 50 4;
44 4 50 4;
MEMBER INCIDENCES
1 1 5; 2 2 6; 3 3 7; 4 4 8; 5 5 7; 6 6 8; 7 5 6; 8 7 8; 9 5 9; 10 6 10;
11 7 11; 12 8 12; 13 9 11; 14 10 12; 15 9 10; 16 11 12; 17 9 13; 18 10 14;
19 11 15; 20 12 16; 21 13 15; 22 14 16; 23 13 14; 24 15 16; 25 13 17; 26 14 18;
27 15 19; 28 16 20; 29 17 19; 30 18 20; 31 17 18; 32 19 20; 33 17 21; 34 18 22;
35 19 23; 36 20 24; 37 21 23; 38 22 24; 39 21 22; 40 23 24; 41 21 25; 42 22 26;
43 23 27; 44 24 28; 45 25 27; 46 26 28; 47 25 26; 48 27 28; 49 25 29; 50 26 30;
51 27 31; 52 28 32; 53 29 31; 54 30 32; 55 29 30; 56 31 32; 57 29 33; 58 30 34;
59 31 35; 60 32 36; 61 33 35; 62 34 36; 63 33 34; 64 35 36; 65 33 37; 66 34 38;
67 35 39; 68 36 40; 69 37 39; 70 38 40; 71 37 38; 72 39 40; 73 37 41; 74 38 42;
75 39 43; 76 40 44; 77 41 43; 78 42 44; 79 41 42; 80 43 44;
DEFINE MATERIAL START
ISOTROPIC MATERIAL
E 2e+08
G 1e+08
TYPE STEEL

END DEFINE MATERIAL
MEMBER PROPERTY
1 TO 80 PRIS YD 0.2 ZD 0.2
CONSTANTS
MATERIAL MATERIAL ALL
SUPPORTS
1 TO 4 FIXED
LOAD 1 LOADTYPE None  TITLE LOAD CASE 1
MEMBER LOAD
5 TO 8 13 TO 16 21 TO 24 29 TO 32 37 TO 40 45 TO 48 53 TO 56 61 TO 64 -
69 TO 72 77 TO 80 UNI GY -10
JOINT LOAD
5 7 9 11 13 15 17 19 21 23 25 27 29 31 33 35 37 39 41 43 FX 10
PERFORM ANALYSIS PRINT ALL
FINISH
